tests/fuzzer/corpus_json/21_random_034.json
{
  "version": "1.0",
  "type": "input",
  "is_batch": false,
  "attributes": {},
  "data": {
    "node": [
      {
        "id": 0,
        "u_rated": 10000.0
      },
      {
        "id": 1,
        "u_rated": 10000.0
      },
      {
        "id": 2,
        "u_rated": 10000.0
      },
      {
        "id": 3,
        "u_rated": 10000.0
      },
      {
        "id": 4,
        "u_rated": 10000.0
      },
      {
        "id": 5,
        "u_rated": 10000.0
      },
      {
        "id": 6,
        "u_rated": 10000.0
      },
      {
        "id": 7,
        "u_rated": 10000.0
      },
      {
        "id": 8,
        "u_rated": 10000.0
      },
      {
        "id": 9,
        "u_rated": 10000.0
      }
    ],
    "source": [
      {
        "id": 10,
        "node": 0,
        "status": 1,
        "u_ref": 1.0686652410467152,
        "u_ref_angle": 0.0,
        "sk": 585788280.0643867,
        "rx_ratio": 0.44932232063229655,
        "z01_ratio": 1.0
      }
    ],
    "line": [
      {
        "id": 11,
        "from_node": 0,
        "to_node": 1,
        "from_status": 1,
        "to_status": 1,
        "r1": 1.8234790099625382,
        "x1": 4.744202199003435,
        "c1": 4.2407453026989136e-07,
        "tan1": 0.0,
        "r0": 0.3,
        "x0": 0.3,
        "c0": 1e-09,
        "tan0": 0.0,
        "i_n": 313.12192773612264
      },
      {
        "id": 12,
        "from_node": 1,
        "to_node": 2,
        "from_status": 1,
        "to_status": 1,
        "r1": 0.4726644822973275,
        "x1": 2.558390603308931,
        "c1": 1.5482334864507364e-07,
        "tan1": 0.0,
        "r0": 0.3,
        "x0": 0.3,
        "c0": 1e-09,
        "tan0": 0.0,
        "i_n": 281.48727069500154
      },
      {
        "id": 13,
        "from_node": 2,
        "to_node": 3,
        "from_status": 1,
        "to_status": 1,
        "r1": 3.052926734144545,
        "x1": 3.881887315025601,
        "c1": 7.52661321489852e-07,
        "tan1": 0.0,
        "r0": 0.3,
        "x0": 0.3,
        "c0": 1e-09,
        "tan0": 0.0,
        "i_n": 95.53915033650213
      },
      {
        "id": 14,
        "from_node": 3,
        "to_node": 4,
        "from_status": 1,
        "to_status": 1,
        "r1": 0.30616620068263156,
        "x1": 1.2760843612185742,
        "c1": 5.519603394340749e-07,
        "tan1": 0.0,
        "r0": 0.3,
        "x0": 0.3,
        "c0": 1e-09,
        "tan0": 0.0,
        "i_n": 840.4552445496158
      },
      {
        "id": 15,
        "from_node": 4,
        "to_node": 5,
        "from_status": 1,
        "to_status": 1,
        "r1": 4.00232573549223,
        "x1": 4.668750098599109,
        "c1": 5.887922858710344e-07,
        "tan1": 0.0,
        "r0": 0.3,
        "x0": 0.3,
        "c0": 1e-09,
        "tan0": 0.0,
        "i_n": 640.3227169581254
      },
      {
        "id": 16,
        "from_node": 5,
        "to_node": 6,
        "from_status": 1,
        "to_status": 1,
        "r1": 1.45978623560084,
        "x1": 1.5692605902548933,
        "c1": 2.060033489250864e-07,
        "tan1": 0.0,
        "r0": 0.3,
        "x0": 0.3,
        "c0": 1e-09,
        "tan0": 0.0,
        "i_n": 539.9255753115661
      },
      {
        "id": 17,
        "from_node": 6,
        "to_node": 7,
        "from_status": 1,
        "to_status": 1,
        "r1": 3.036278453883932,
        "x1": 2.8659623383853767,
        "c1": 3.919817994793331e-07,
        "tan1": 0.0,
        "r0": 0.3,
        "x0": 0.3,
        "c0": 1e-09,
        "tan0": 0.0,
        "i_n": 429.6597264243715
      },
      {
        "id": 18,
        "from_node": 7,
        "to_node": 8,
        "from_status": 1,
        "to_status": 1,
        "r1": 1.2422274680457013,
        "x1": 4.07594088881976,
        "c1": 5.810433601682314e-07,
        "tan1": 0.0,
        "r0": 0.3,
        "x0": 0.3,
        "c0": 1e-09,
        "tan0": 0.0,
        "i_n": 751.2093276093694
      },
      {
        "id": 19,
        "from_node": 8,
        "to_node": 9,
        "from_status": 1,
        "to_status": 1,
        "r1": 4.058160537648543,
        "x1": 1.4041924258665495,
        "c1": 1.1702966378038937e-07,
        "tan1": 0.0,
        "r0": 0.3,
        "x0": 0.3,
        "c0": 1e-09,
        "tan0": 0.0,
        "i_n": 290.0642557765577
      }
    ],
    "sym_load": [
      {
        "id": 20,
        "node": 3,
        "status": 1,
        "type": 1,
        "p_specified": -9771.77639990687,
        "q_specified": 8148.727281431125
      },
      {
        "id": 21,
        "node": 4,
        "status": 1,
        "type": 1,
        "p_specified": -15985.518894393055,
        "q_specified": -761.8738170487886
      },
      {
        "id": 22,
        "node": 5,
        "status": 1,
        "type": 1,
        "p_specified": -71970.28959713345,
        "q_specified": -6862.938955996187
      },
      {
        "id": 23,
        "node": 6,
        "status": 1,
        "type": 1,
        "p_specified": 3412.7505188032956,
        "q_specified": 1692.6109082394123
      },
      {
        "id": 24,
        "node": 7,
        "status": 1,
        "type": 0,
        "p_specified": -18437.153185578412,
        "q_specified": 6932.831899738761
      }
    ]
  }
}